*Heading
** Job name: Job-1 Model name: Model-1
** Generated by: Abaqus/CAE 2020
*Preprint, echo=NO, model=NO, history=NO, contact=NO
**
** PARTS
**
*Part, name=Part-1
*Node
      1,          -8.,         0.75,  0.200000003
      2,          -9.,         0.75,  0.200000003
      3,          -9.,        -0.75,  0.200000003
      4,          -8.,        -0.75,  0.200000003
      5,          -9.,         0.75,           0.
      6,          -9.,        -0.75,           0.
      7,          -8.,        -0.75,           0.
      8,          -8.,         0.75,           0.
      9,          -8.,           2.,  0.200000003
     10,          -9.,           2.,  0.200000003
     11,          -8.,           2.,           0.
     12,          -9.,           2.,           0.
     13,        -0.75,          -9.,  0.200000003
     14,        -0.75,          -8.,  0.200000003
     15,          -2.,          -8.,  0.200000003
     16,          -2.,          -9.,  0.200000003
     17,        -0.75,          -8.,           0.
     18,          -2.,          -8.,           0.
     19,          -2.,          -9.,           0.
     20,        -0.75,          -9.,           0.
** ... 1918 like lines cut
*Element, type=C3D8R
 1,   8,  92, 515,  98,   1,  81, 509,  90
 2,  92,  91, 516, 515,  81,  82, 510, 509
 3,  91,   5,  95, 516,  82,   2,  83, 510
 4,  98, 515, 517,  99,  90, 509, 511,  89
 5, 515, 516, 518, 517, 509, 510, 512, 511
 6, 516,  95,  94, 518, 510,  83,  84, 512
 7,  99, 517, 519, 100,  89, 511, 513,  88
 8, 517, 518, 520, 519, 511, 512, 514, 513
 9, 518,  94,  93, 520, 512,  84,  85, 514
10, 100, 519,  96,   7,  88, 513,  87,   4
11, 519, 520,  97,  96, 513, 514,  86,  87
12, 520,  93,   6,  97, 514,  85,   3,  86
13,   5,  91, 525, 111,   2,  82, 521, 106
14,  91,  92, 526, 525,  82,  81, 522, 521
15,  92,   8, 108, 526,  81,   1, 101, 522
16, 111, 525, 527, 112, 106, 521, 523, 105
17, 525, 526, 528, 527, 521, 522, 524, 523
18, 526, 108, 107, 528, 522, 101, 102, 524
19, 112, 527, 109,  12, 105, 523, 104,  10
20, 527, 528, 110, 109, 523, 524, 103, 104
** ... 856 like lines cut
*Nset, nset=Set-1, generate
    1,  1938,     1
*Elset, elset=Set-1, generate
   1,  876,    1
*Elset, elset=U4, generate
 451,  560,    1
*Elset, elset=U5, generate
 341,  450,    1
*Elset, elset=U6, generate
 231,  340,    1
*Elset, elset=U7, generate
 121,  230,    1
*Elset, elset=U3
   1,   2,   3,   4,   5,   6,   7,   8,   9,  10,  11,  12,  13,  14,  15,  16
  17,  18,  19,  20,  21,  22,  23,  24,  25,  26,  27,  28,  29,  30,  31,  32
  33,  34,  35,  36,  37,  38,  39,  40,  41,  42,  43,  44,  45,  46,  47,  48
  49,  50,  51,  52,  53,  54,  55,  56,  57,  58,  59,  60,  61,  62,  63,  64
  65,  66,  67,  68,  69,  70,  71,  72,  73,  74,  75,  76,  77,  78,  79,  80
  81,  82,  83,  84,  85,  86,  87,  88,  89,  90,  91,  92,  93,  94,  95,  96
  97,  98,  99, 100, 101, 102, 103, 104, 105, 106, 107, 108, 109, 110, 111, 112
 113, 114, 115, 116, 117, 118, 119, 120, 561, 562, 563, 564, 565, 566, 567, 568
 569, 570, 571, 572, 573, 574, 575, 576, 577, 578, 579, 580, 581, 582, 583, 584
 585, 586, 587, 588, 589, 590, 591, 592, 593, 594, 595, 596, 597, 598, 599, 600
 601, 602, 603, 604, 605, 606, 607, 608, 609, 610, 611, 612, 613, 614, 615, 616
 617, 618, 619, 620, 621, 622, 623, 624, 625, 626, 627, 628, 629, 630, 631, 632
 633, 634, 635, 636, 637, 638, 639, 640, 641, 642, 643, 644, 645, 646, 647, 648
 649, 650, 651, 652, 653, 654, 655, 656, 657, 658, 659, 660, 661, 662, 663, 664
 665, 666, 667, 668, 669, 670, 671, 672, 673, 674, 675, 676, 677, 678, 679, 680
 681, 682, 683, 684, 685, 686, 687, 688, 689, 690, 691, 692, 693, 694, 695, 696
 697, 698, 699, 700, 701, 702, 703, 704, 705, 706, 707, 708, 709, 710, 711, 712
 713, 714, 715, 716, 717, 718, 719, 720, 721, 722, 723, 724, 725, 726, 727, 728
 729, 730, 731, 732, 733, 734, 735, 736, 737, 738, 739, 740, 741, 742, 743, 744
 745, 746, 747, 748, 749, 750, 751, 752, 753, 754, 755, 756, 757, 758, 759, 760
** ... 8 like lines cut
*Nset, nset=BC_bottom, generate
 77,  80,   1
*Elset, elset=_BondBase_S2, internal
  1,  2,  3,  4,  5,  6,  7,  8,  9, 10, 11, 12, 31, 32, 33, 34
 35, 36, 37, 38, 39, 40, 41, 42, 64, 65, 66, 67, 68, 69, 70, 71
 72, 73, 74, 75
*Elset, elset=_BondBase_S1, internal, generate
 52,  63,   1
*Surface, type=ELEMENT, name=BondBase
_BondBase_S2, S2
_BondBase_S1, S1
** Section: Section-1
*Solid Section, elset=Set-1, material=Material-1
,
*End Part
**  
*Part, name=Part-2
*Node
      1,          -8.,        -0.75,           0.
      2,          -8.,        -0.75,  0.200000003
      3,          -9.,        -0.75,  0.200000003
      4,          -9.,        -0.75,           0.
      5,          -8.,         0.75,  0.200000003
      6,          -9.,         0.75,  0.200000003
      7,          -9.,         0.75,           0.
      8,          -8.,         0.75,           0.
      9,         0.75,           8.,  0.200000003
     10,         0.75,           8.,           0.
     11,         0.75,           9.,           0.
     12,         0.75,           9.,  0.200000003
     13,        -0.75,           8.,           0.
     14,        -0.75,           9.,           0.
     15,        -0.75,           9.,  0.200000003
     16,        -0.75,           8.,  0.200000003
     17,           8.,         0.75,           0.
     18,           8.,         0.75,  0.200000003
     19,           9.,         0.75,  0.200000003
     20,           9.,         0.75,           0.
** ... 858 like lines cut
*Element, type=C3D8R
1,  50,  54, 380, 377,   1,   2,  41,  42
2, 377, 380,  53,  45,  42,  41,   3,   4
3,  49,  55, 381, 378,  50,  54, 380, 377
4, 378, 381,  52,  46, 377, 380,  53,  45
5,  48,  56, 382, 379,  49,  55, 381, 378
6, 379, 382,  51,  47, 378, 381,  52,  46
7,   8,   5,  43,  44,  48,  56, 382, 379
8,  44,  43,   6,   7, 379, 382,  51,  47
 9,  66,  70, 386, 383,   9,  10,  57,  58
10, 383, 386,  69,  61,  58,  57,  11,  12
11,  65,  71, 387, 384,  66,  70, 386, 383
12, 384, 387,  68,  62, 383, 386,  69,  61
13,  64,  72, 388, 385,  65,  71, 387, 384
14, 385, 388,  67,  63, 384, 387,  68,  62
15,  16,  13,  59,  60,  64,  72, 388, 385
16,  60,  59,  14,  15, 385, 388,  67,  63
17,  82,  86, 392, 389,  17,  18,  73,  74
18, 389, 392,  85,  77,  74,  73,  19,  20
19,  81,  87, 393, 390,  82,  86, 392, 389
20, 390, 393,  84,  78, 389, 392,  85,  77
** ... 330 like lines cut
*Nset, nset=Set-1, generate
   1,  878,    1
*Elset, elset=Set-1, generate
   1,  350,    1
*Nset, nset=strippool, generate
 33,  36,   1
*Elset, elset=_Bondstrip_S6, internal
  1,  2,  3,  4,  5,  6,  7,  8, 17, 18, 19, 20, 21, 22, 23, 24
*Elset, elset=_Bondstrip_S5, internal, generate
 25,  32,   1
*Elset, elset=_Bondstrip_S4, internal, generate
  9,  16,   1
*Surface, type=ELEMENT, name=Bondstrip
_Bondstrip_S6, S6
_Bondstrip_S5, S5
_Bondstrip_S4, S4
** Section: Section-1
*Solid Section, elset=Set-1, material=Material-1
,
*End Part
**  
**
** ASSEMBLY
**
*Assembly, name=Assembly
**  
*Instance, name=Part-1-1, part=Part-1
*End Instance
**  
*Instance, name=Part-2-1, part=Part-2
          0.,           0.,          0.2
*End Instance
**  
** Constraint: Constraint-1
*Tie, name=Constraint-1, adjust=yes
Part-2-1.Bondstrip, Part-1-1.BondBase
*End Assembly
** 
** MATERIALS
** 
*Material, name=Material-1
*Elastic
50000., 0.3
** 
** INTERACTION PROPERTIES
** 
*Surface Interaction, name=IntProp-1
1.,
*Friction, slip tolerance=0.005
 0.2,
** 
** CONTACT INITIALIZATION DATA
** 
*Contact Initialization Data, name=CInit-1
** 
** BOUNDARY CONDITIONS
** 
** Name: BC-1 Type: Symmetry/Antisymmetry/Encastre
*Boundary
Part-1-1.BC_bottom, ENCASTRE
** ----------------------------------------------------------------
** 
** STEP: Step-3
** 
*Step, name=Step-3, nlgeom=YES
*Static
1., 1., 1e-05, 1.
** 
** BOUNDARY CONDITIONS
** 
** Name: BC-2 Type: Displacement/Rotation
*Boundary
Part-2-1.strippool, 3, 3, 2.
** 
** OUTPUT REQUESTS
** 
*Restart, write, frequency=0
** 
** FIELD OUTPUT: F-Output-3
** 
*Output, field, variable=PRESELECT
** 
** HISTORY OUTPUT: H-Output-1
** 
*Output, history, variable=PRESELECT
*End Step
