*Heading
** Job name: Job-1 Model name: Model-1
** Generated by: Abaqus/CAE 2020
*Preprint, echo=NO, model=NO, history=NO, contact=NO
**
** PARTS
**
*Part, name=Part-1
*Node
      1,          -6.,           2.,           0.
      2,          -4.,           0.,           0.
      3,          -6.,          -2.,           0.
      4,          -8.,          -2.,           0.
      5,          -8.,           2.,           0.
      6,          -6.,           2.,  0.200000003
      7,          -4.,           0.,  0.200000003
      8,          -8.,           2.,  0.200000003
      9,          -8.,         0.75,  0.200000003
     10,          -8.,          -2.,  0.200000003
     11,          -8.,        -0.75,  0.200000003
     12,          -6.,          -2.,  0.200000003
     13,           0.,           4.,           0.
     14,           2.,           6.,           0.
     15,           2.,           2.,           0.
     16,           0.,           4.,  0.200000003
     17,           2.,           6.,  0.200000003
     18,           2.,           2.,  0.200000003
     19,           6.,          -2.,  0.200000003
     20,           4.,           0.,  0.200000003
** ... 4645 like lines cut
*Element, type=C3D8R
  1,  949,  950, 3541, 3531,   85,   86,  876,  875
  2,  950,   94,  942, 3541,   86,    1,   87,  876
  3, 3531, 3541, 3542, 3530,  875,  876,  878,  877
  4, 3541,  942,  943, 3542,  876,   87,   88,  878
  5, 3530, 3542, 3543, 3529,  877,  878,  880,  879
  6, 3542,  943,  944, 3543,  878,   88,   89,  880
  7, 3529, 3543, 3544, 3528,  879,  880,  882,  881
  8, 3543,  944,  945, 3544,  880,   89,   90,  882
  9, 3528, 3544, 3545, 3527,  881,  882,  884,  883
 10, 3544,  945,  946, 3545,  882,   90,   91,  884
 11, 3527, 3545, 3546, 3526,  883,  884,  886,  885
 12, 3545,  946,  947, 3546,  884,   91,   92,  886
 13, 3526, 3546, 3525, 3524,  885,  886,  888,  887
 14, 3546,  947,  948, 3525,  886,   92,   93,  888
 15,  948,  102,  955, 3525,   93,    2,   95,  888
 16, 3525,  955,  956, 3524,  888,   95,   96,  887
 17,  956,  957, 3536, 3524,   96,   97,  889,  887
 18,  957,  958, 3535, 3536,   97,   98,  890,  889
 19,  958,  959, 3534, 3535,   98,   99,  891,  890
 20,  959,  960, 3533, 3534,   99,  100,  892,  891
** ... 2852 like lines cut
*Nset, nset=Set-6, generate
    1,  4665,     1
*Elset, elset=Set-6, generate
    1,  2872,     1
*Nset, nset=U3
    1,    2,    4,    5,    6,    7,    8,    9,   10,   11,   13,   14,   15,   16,   17,   18
   19,   20,   21,   22,   23,   24,   25,   26,   27,   28,   29,   30,   32,   33,   35,   36
   37,   38,   39,   40,   41,   42,   45,   46,   47,   48,   49,   50,   51,   52,   53,   54
   57,   58,   59,   60,   61,   62,   63,   64,   65,   66,   67,   68,   69,   70,   71,   72
   73,   74,   75,   76,   77,   78,   79,   80,   87,   88,   89,   90,   91,   92,   93,   94
  102,  109,  110,  111,  112,  113,  114,  115,  116,  117,  118,  119,  120,  121,  122,  123
  124,  125,  126,  127,  128,  129,  143,  144,  145,  146,  147,  148,  149,  155,  156,  157
  158,  159,  160,  161,  162,  163,  164,  165,  166,  167,  168,  169,  170,  171,  172,  173
  174,  175,  176,  177,  178,  179,  180,  181,  182,  183,  184,  185,  186,  187,  188,  189
  190,  191,  192,  193,  194,  195,  196,  197,  198,  199,  200,  201,  202,  203,  204,  205
  206,  207,  208,  209,  210,  211,  212,  213,  214,  215,  216,  217,  218,  219,  220,  221
  222,  223,  224,  225,  226,  227,  228,  229,  230,  231,  232,  233,  234,  235,  236,  237
  238,  239,  240,  241,  242,  243,  244,  245,  246,  247,  248,  249,  250,  251,  252,  253
  254,  255,  256,  257,  258,  259,  260,  261,  262,  263,  264,  265,  266,  267,  268,  269
  270,  271,  272,  273,  274,  275,  283,  284,  285,  286,  287,  288,  289,  290,  291,  298
  299,  300,  301,  302,  303,  304,  305,  306,  313,  314,  315,  316,  318,  319,  320,  321
  322,  323,  324,  325,  345,  346,  347,  348,  349,  350,  351,  352,  353,  354,  355,  356
  357,  358,  359,  360,  361,  362,  363,  364,  365,  366,  367,  368,  369,  370,  371,  372
  373,  374,  375,  376,  377,  378,  379,  380,  381,  382,  383,  384,  385,  386,  387,  388
  389,  390,  391,  392,  432,  433,  434,  435,  436,  437,  438,  439,  440,  441,  442,  443
** ... 150 like lines cut
*Elset, elset=U3
  175,  176,  177,  178,  179,  180,  181,  182,  183,  184,  185,  186,  187,  188,  189,  190
  191,  192,  193,  194,  195,  196,  197,  198,  199,  200,  201,  202,  203,  204,  205,  206
  207,  208,  209,  210,  211,  212,  213,  214,  215,  216,  217,  218,  219,  220,  221,  222
  223,  224,  225,  226,  227,  228,  229,  230,  231,  232,  233,  234,  235,  236,  237,  238
  239,  240,  241,  242,  243,  244,  245,  246,  247,  248,  249,  250,  251,  252,  253,  254
  255,  256,  257,  258,  259,  260,  261,  262,  263,  264,  265,  266,  267,  268,  269,  270
  271,  272,  273,  274,  275,  276,  277,  278,  279,  280,  281,  282,  283,  284,  285,  286
  287,  288,  289,  290,  291,  292,  293,  294,  295,  296,  297,  298,  299,  300,  301,  302
  303,  304,  305,  306,  307,  308,  309,  310,  311,  312,  313,  314,  315,  316,  317,  318
  319,  320,  321,  322,  323,  324,  325,  326,  327,  328,  329,  330,  331,  332,  333,  334
  335,  336,  337,  338,  339,  340,  341,  342,  343,  344,  345,  346,  347,  348,  349,  350
  351,  352,  353,  354,  355,  356,  357,  358,  359,  360,  361,  362,  363,  364,  365,  366
  367,  368,  369,  370,  371,  372,  373,  374,  375,  376,  377,  378,  379,  380,  381,  382
  383,  384,  385,  386,  387,  388,  389,  390,  391,  392,  393,  394,  395,  396,  397,  398
  399,  400,  401,  402,  403,  404,  405,  406,  407,  408,  409,  410,  411,  412,  413,  414
  415,  416,  417,  418,  419,  420,  421,  422,  423,  424,  425,  426,  427,  428,  429,  430
  431,  432,  433,  434,  435,  436,  437,  438,  439,  440,  441,  442,  443,  444,  445,  446
  447,  448,  449,  450,  451,  452,  453,  454,  455,  456,  457,  458,  459,  460,  461,  462
  463,  464,  465,  466,  467,  468,  469,  470,  471,  472,  663,  664,  665,  666,  667,  668
  669,  670,  671,  672,  673,  674,  675,  676,  677,  678,  679,  680,  681,  682,  683,  684
** ... 77 like lines cut
*Nset, nset=U4
    1,    2,    3,    4,    5,    6,    7,    8,    9,   10,   11,   12,   13,   14,   15,   16
   17,   18,   19,   20,   21,   22,   23,   24,   25,   26,   27,   28,   29,   30,   31,   32
   33,   34,   35,   36,   43,   44,   45,   46,   47,   48,   49,   50,   51,   52,   53,   54
   55,   56,   57,   58,   59,   60,   61,   62,   81,   82,   83,   84,   85,   86,   87,   88
   89,   90,   91,   92,   93,   94,   95,   96,   97,   98,   99,  100,  101,  102,  103,  104
  105,  106,  107,  108,  109,  110,  111,  112,  113,  114,  115,  116,  117,  118,  119,  120
  121,  122,  123,  124,  125,  126,  127,  128,  129,  130,  131,  132,  133,  134,  135,  136
  137,  138,  139,  140,  141,  142,  143,  144,  145,  146,  147,  148,  149,  150,  151,  152
  153,  154,  155,  156,  157,  166,  167,  168,  169,  170,  171,  172,  173,  174,  188,  189
  190,  191,  192,  193,  194,  195,  196,  197,  230,  231,  232,  233,  234,  235,  236,  237
  238,  247,  248,  249,  250,  251,  252,  253,  254,  255,  256,  276,  277,  278,  279,  280
  281,  282,  283,  284,  285,  286,  287,  288,  289,  290,  291,  292,  293,  294,  295,  296
  297,  298,  299,  300,  301,  302,  303,  304,  305,  306,  307,  308,  309,  310,  311,  312
  313,  314,  315,  316,  317,  318,  319,  320,  321,  322,  323,  324,  325,  326,  327,  328
  329,  330,  331,  332,  333,  334,  335,  336,  337,  338,  339,  340,  341,  342,  343,  344
  345,  346,  347,  348,  349,  350,  351,  352,  353,  354,  355,  356,  393,  394,  395,  396
  397,  398,  399,  400,  401,  402,  403,  404,  405,  406,  407,  408,  409,  410,  411,  412
  413,  414,  415,  416,  417,  418,  419,  420,  421,  422,  423,  424,  425,  426,  427,  428
  429,  430,  431,  432,  433,  434,  435,  436,  437,  438,  439,  440,  441,  442,  443,  444
  445,  446,  447,  448,  449,  450,  451,  452,  453,  454,  455,  456,  457,  458,  459,  460
** ... 127 like lines cut
*Elset, elset=U4
    1,    2,    3,    4,    5,    6,    7,    8,    9,   10,   11,   12,   13,   14,   15,   16
   17,   18,   19,   20,   21,   22,   23,   24,   25,   26,   27,   28,   29,   30,   31,   32
   33,   34,   35,   36,   37,   38,   39,   40,   41,   42,   43,   44,   45,   46,   47,   48
   49,   50,   51,   52,   53,   54,   55,   56,   57,   58,   59,   60,   61,   62,   63,   64
   65,   66,   67,   68,   69,   70,   71,   72,   73,   74,   75,   76,   77,   78,   79,   80
   81,   82,   83,   84,   85,   86,   87,   88,   89,   90,   91,   92,   93,   94,   95,   96
   97,   98,   99,  100,  101,  102,  103,  104,  105,  106,  107,  108,  109,  110,  111,  112
  113,  114,  115,  116,  117,  118,  119,  120,  121,  122,  123,  124,  125,  126,  127,  128
  129,  130,  131,  132,  133,  134,  135,  136,  137,  138,  139,  140,  141,  142,  143,  144
  145,  146,  147,  148,  149,  150,  151,  152,  153,  154,  155,  156,  157,  158,  159,  160
  161,  162,  163,  164,  165,  166,  167,  168,  169,  170,  171,  172,  173,  174,  473,  474
  475,  476,  477,  478,  479,  480,  481,  482,  483,  484,  485,  486,  487,  488,  489,  490
  491,  492,  493,  494,  495,  496,  497,  498,  499,  500,  501,  502,  503,  504,  505,  506
  507,  508,  509,  510,  511,  512,  513,  514,  515,  516,  517,  518,  519,  520,  521,  522
  523,  524,  525,  526,  527,  528,  529,  530,  531,  532,  533,  534,  535,  536,  537,  538
  539,  540,  541,  542,  543,  544,  545,  546,  547,  548,  549,  550,  551,  552,  553,  554
  555,  556,  557,  558,  559,  560,  561,  562,  563,  564,  565,  566,  567,  568,  569,  570
  571,  572,  573,  574,  575,  576,  577,  578,  579,  580,  581,  582,  583,  584,  585,  586
  587,  588,  589,  590,  591,  592,  593,  594,  595,  596,  597,  598,  599,  600,  601,  602
  603,  604,  605,  606,  607,  608,  609,  610,  611,  612,  613,  614,  615,  616,  617,  618
** ... 63 like lines cut
*Nset, nset=Set-1
  1, 14, 15, 22, 24, 32, 59, 62
*Nset, nset=Set-2
 15, 24, 59, 62
*Elset, elset=_Bondbase_S4, internal
  688,  690,  692,  694,  696,  698,  700,  702,  704,  706,  708,  710,  712,  714,  716, 2684
 2686, 2688, 2690, 2692, 2694, 2696, 2698, 2700, 2702, 2704, 2706, 2708, 2710, 2712
*Elset, elset=_Bondbase_S2, internal, generate
 2593,  2607,     1
*Elset, elset=_Bondbase_S3, internal
 2345, 2346, 2347, 2348, 2349, 2371, 2372, 2373, 2374, 2375, 2397, 2398, 2399, 2400, 2401
*Surface, type=ELEMENT, name=Bondbase
_Bondbase_S4, S4
_Bondbase_S2, S2
_Bondbase_S3, S3
*Elset, elset=_Contactbase_S3, internal
  102,  103,  301,  302,  303,  304,  305,  306,  307,  308,  309,  310,  311,  312,  313,  314
  749,  750,  751,  752,  753,  754,  755,  756,  757,  758,  759,  760, 2805, 2806, 2807, 2808
 2809, 2810, 2811, 2812, 2813, 2814, 2815, 2816, 2817, 2818
*Elset, elset=_Contactbase_S4, internal
   88,   89,   90,   91,   92,   93,   94,   95,   96,   97,   98,   99,  100,  101,  252,  253
  254,  255,  256,  257,  258,  259,  260,  261,  262,  263,  264,  265,  266,  267,  268,  269
  270,  271,  272,  273,  274,  275,  276,  277,  278,  279,  280,  281,  282,  283,  284,  285
  286,  287,  288,  289,  290,  291,  292,  293,  294,  295,  296,  297,  298,  299,  300,  315
  316,  317,  318,  319,  320,  321,  322,  323,  324,  325,  326,  327,  328,  745,  746,  747
  748,  773,  774,  775,  776,  777,  778,  779,  780,  781,  782,  783,  784,  785,  786, 2819
 2820, 2821, 2822, 2823, 2824, 2825, 2826, 2827, 2828, 2829, 2830, 2831, 2832, 2833, 2834, 2835
 2836, 2837, 2838, 2839, 2840, 2841, 2842, 2843, 2844, 2845, 2846, 2847, 2848, 2849, 2850, 2851
 2852, 2853, 2854, 2855, 2856, 2857, 2858, 2859, 2860
*Elset, elset=_Contactbase_S2, internal
  104,  105,  106,  107,  108,  109,  110,  111,  112,  113,  114,  115,  116,  117,  118,  119
  120,  121,  122,  123,  124,  125,  126,  127,  128,  129,  130,  131,  132,  133,  134,  135
  136,  137,  138,  139,  140,  141,  142,  143,  144,  145,  146,  147,  148,  149,  150,  151
  152,  153,  154,  155,  156,  157,  158,  159,  160,  161,  162,  163,  164,  165,  166,  167
  168,  169,  170,  171,  172,  173,  174,  329,  330,  331,  332,  333,  334,  335,  336,  337
  338,  339,  340,  341,  342,  343,  344,  345,  346,  347,  348,  349,  350,  351,  352,  353
  354,  355,  356,  357,  358,  359,  360,  361,  362,  363,  364,  365,  366,  367,  368,  369
  370,  371,  372,  373,  374,  375,  376,  377,  378,  379,  380,  381,  382,  383,  384,  385
  386,  387,  388,  389,  390,  391,  392,  393,  394,  395,  396,  397,  398,  399,  400,  473
  474,  475,  476,  477,  478,  479,  480,  481,  482,  483,  484,  485,  486,  487,  488,  489
  490,  491,  492,  493,  494,  495,  496,  497,  498,  499,  500,  501,  502,  503,  504,  505
  506,  507,  508,  509,  510,  511,  512,  513,  514,  515,  516,  517,  518,  519,  520,  521
  522,  523,  524,  525,  526,  527,  528,  529,  530,  531,  532,  533,  534,  535,  536,  537
  538,  539,  540,  541,  542,  543,  544,  545,  546,  547,  548,  549,  550,  551,  552,  553
  554,  555,  556,  557,  558,  559,  560,  561,  562,  563,  564,  565,  566,  567,  801,  802
  803,  804,  805,  806,  807,  808,  809,  810,  811,  812,  813,  814,  815,  816,  817,  818
  819,  820,  821,  822,  823,  824,  825,  826,  827,  828,  829,  830,  831,  832,  833,  834
  835,  836,  837,  838,  839,  840,  841,  842,  843,  844,  845,  846,  847,  848,  849,  850
  851,  852,  853,  854,  855,  856,  857,  858,  859,  860,  861,  862,  863,  864,  865,  931
  932,  933,  934,  935,  936,  937,  938,  939,  940,  941,  942,  943,  944,  945,  946,  947
** ... 6 like lines cut
*Surface, type=ELEMENT, name=Contactbase
_Contactbase_S3, S3
_Contactbase_S4, S4
_Contactbase_S2, S2
** Section: Section-1
*Solid Section, elset=Set-6, material=Material-1
,
*End Part
**  
*Part, name=Part-2
*Node
      1,          -8.,         0.75,           0.
      2,          -8.,        -0.75,           0.
      3,          -9.,        -0.75,           0.
      4,          -9.,         0.75,           0.
      5,          -8.,        -0.75, 0.0199999996
      6,          -9.,        -0.75, 0.0199999996
      7,          -9.,         0.75, 0.0199999996
      8,          -8.,         0.75, 0.0199999996
      9,        -0.75,           8., 0.0199999996
     10,         0.75,           8., 0.0199999996
     11,         0.75,           9., 0.0199999996
     12,        -0.75,           9., 0.0199999996
     13,         0.75,           8.,           0.
     14,         0.75,           9.,           0.
     15,        -0.75,           9.,           0.
     16,        -0.75,           8.,           0.
     17,           9.,         0.75, 0.0199999996
     18,           9.,        -0.75, 0.0199999996
     19,           9.,        -0.75,           0.
     20,           9.,         0.75,           0.
** ... 874 like lines cut
*Element, type=C3D8R
 1,   8,  53, 399,  59,   1,  41, 393,  50
 2,  53,  52, 400, 399,  41,  42, 394, 393
 3,  52,  51, 401, 400,  42,  43, 395, 394
 4,  51,   5,  55, 401,  43,   2,  44, 395
 5,  59, 399, 402,  60,  50, 393, 396,  49
 6, 399, 400, 403, 402, 393, 394, 397, 396
 7, 400, 401, 404, 403, 394, 395, 398, 397
 8, 401,  55,  54, 404, 395,  44,  45, 398
 9,  60, 402,  56,   7,  49, 396,  48,   4
10, 402, 403,  57,  56, 396, 397,  47,  48
11, 403, 404,  58,  57, 397, 398,  46,  47
12, 404,  54,   6,  58, 398,  45,   3,  46
13,  16,  73, 411,  79,   9,  61, 405,  70
14,  73,  72, 412, 411,  61,  62, 406, 405
15,  72,  71, 413, 412,  62,  63, 407, 406
16,  71,  13,  75, 413,  63,  10,  64, 407
17,  79, 411, 414,  80,  70, 405, 408,  69
18, 411, 412, 415, 414, 405, 406, 409, 408
19, 412, 413, 416, 415, 406, 407, 410, 409
20, 413,  75,  74, 416, 407,  64,  65, 410
** ... 334 like lines cut
*Nset, nset=Set-6, generate
   1,  894,    1
*Elset, elset=Set-6, generate
   1,  354,    1
*Elset, elset=_Bondstrip_S2, internal, generate
  1,  12,   1
*Elset, elset=_Bondstrip_S1, internal, generate
 13,  24,   1
*Elset, elset=_Bondstrip_S5, internal, generate
 25,  48,   1
*Surface, type=ELEMENT, name=Bondstrip
_Bondstrip_S2, S2
_Bondstrip_S1, S1
_Bondstrip_S5, S5
*Elset, elset=_contactstrip_S1, internal, generate
  49,  354,    1
*Surface, type=ELEMENT, name=contactstrip
_contactstrip_S1, S1
** Section: Section-1
*Solid Section, elset=Set-6, material=Material-1
,
*End Part
**  
**
** ASSEMBLY
**
*Assembly, name=Assembly
**  
*Instance, name=Part-1-1, part=Part-1
*End Instance
**  
*Instance, name=Part-2-1, part=Part-2
          0.,           0.,          0.2
*End Instance
**  
*Nset, nset=Set-1, instance=Part-1-1
 15, 24, 62
*Nset, nset=Set-2, instance=Part-1-1
 59,
*Nset, nset=strippool, instance=Part-2-1, generate
 37,  40,   1
** Constraint: Constraint-1
*Tie, name=Constraint-1, adjust=yes
Part-2-1.Bondstrip, Part-1-1.Bondbase
*End Assembly
** 
** MATERIALS
** 
*Material, name=Material-1
*Elastic
50000., 0.3
** 
** INTERACTION PROPERTIES
** 
*Surface Interaction, name=IntProp-1
1.,
*Friction, slip tolerance=0.005
 0.2,
** 
** BOUNDARY CONDITIONS
** 
** Name: BC-1 Type: Symmetry/Antisymmetry/Encastre
*Boundary
Set-1, ZSYMM
** Name: BC-2 Type: Symmetry/Antisymmetry/Encastre
*Boundary
Set-2, ENCASTRE
** 
** INTERACTIONS
** 
** Interaction: gen_contact
*Contact
*Contact Inclusions, ALL EXTERIOR
*Contact Property Assignment
 ,  , IntProp-1
** ----------------------------------------------------------------
** 
** STEP: Step-3
** 
*Step, name=Step-3, nlgeom=YES
*Static
1., 1., 1e-05, 1.
** 
** BOUNDARY CONDITIONS
** 
** Name: BC-3 Type: Displacement/Rotation
*Boundary
strippool, 3, 3, 3.
** 
** OUTPUT REQUESTS
** 
*Restart, write, frequency=0
** 
** FIELD OUTPUT: F-Output-3
** 
*Output, field, variable=PRESELECT
** 
** HISTORY OUTPUT: H-Output-1
** 
*Output, history, variable=PRESELECT
*End Step
