*Heading
** Job name: Job-1 Model name: Model-1
** Generated by: Abaqus/CAE 2020
*Preprint, echo=NO, model=NO, history=NO, contact=NO
**
** PARTS
**
*Part, name=Part-1
*Node
      1,           2.,           8.,           0.
      2,           2.,           8.,  0.200000003
      3,         0.75,           8.,  0.200000003
      4,         0.75,           8.,           0.
      5,        -0.75,           8.,  0.200000003
      6,        -0.75,           8.,           0.
      7,          -2.,           8.,  0.200000003
      8,          -2.,           8.,           0.
      9,           2.,           5.,  0.200000003
     10,          -2.,           5.,  0.200000003
     11,          -2.,           5.,           0.
     12,           2.,           5.,           0.
     13,           8.,          -2.,           0.
     14,           8.,          -2.,  0.200000003
     15,           8.,        -0.75,  0.200000003
     16,           8.,        -0.75,           0.
     17,           8.,         0.75,  0.200000003
     18,           8.,         0.75,           0.
     19,           8.,           2.,  0.200000003
     20,           8.,           2.,           0.
** ... 1960 like lines cut
*Element, type=C3D8R
 1,   1,   2,  89,  92, 128, 148, 612, 549
 2,  92,  89,  90,  91, 549, 612, 613, 550
 3,  91,  90,   3,   4, 550, 613, 614, 551
 4,   4,   3,  93,  98, 551, 614, 615, 552
 5,  98,  93,  94,  97, 552, 615, 616, 553
 6,  97,  94,  95,  96, 553, 616, 617, 554
 7,  96,  95,   5,   6, 554, 617, 618, 555
 8,   6,   5,  99, 102, 555, 618, 619, 556
 9, 102,  99, 100, 101, 556, 619, 620, 557
10, 101, 100,   7,   8, 557, 620, 135, 127
11, 128, 148, 612, 549, 129, 147, 621, 558
12, 549, 612, 613, 550, 558, 621, 622, 559
13, 550, 613, 614, 551, 559, 622, 623, 560
14, 551, 614, 615, 552, 560, 623, 624, 561
15, 552, 615, 616, 553, 561, 624, 625, 562
16, 553, 616, 617, 554, 562, 625, 626, 563
17, 554, 617, 618, 555, 563, 626, 627, 564
18, 555, 618, 619, 556, 564, 627, 628, 565
19, 556, 619, 620, 557, 565, 628, 629, 566
20, 557, 620, 135, 127, 566, 629, 136, 126
** ... 876 like lines cut
*Nset, nset=Set-1, generate
    1,  1980,     1
*Elset, elset=Set-1, generate
   1,  896,    1
*Elset, elset=U3
 241, 242, 243, 244, 245, 246, 247, 248, 249, 250, 251, 252, 253, 254, 255, 256
 257, 258, 259, 260, 261, 262, 263, 264, 265, 266, 267, 268, 269, 270, 271, 272
 273, 274, 275, 276, 277, 278, 279, 280, 281, 282, 283, 284, 285, 286, 287, 288
 289, 290, 291, 292, 293, 294, 295, 296, 297, 298, 299, 300, 301, 302, 303, 304
 305, 306, 307, 308, 309, 310, 311, 312, 313, 314, 315, 316, 317, 318, 319, 320
 321, 322, 323, 324, 325, 326, 327, 328, 329, 330, 331, 332, 333, 334, 335, 336
 337, 338, 339, 340, 341, 342, 343, 344, 345, 346, 347, 348, 349, 350, 351, 432
 433, 434, 435, 436, 437, 438, 439, 440, 441, 442, 443, 444, 445, 446, 447, 448
 449, 450, 451, 452, 453, 454, 455, 456, 457, 458, 459, 460, 461, 462, 463, 464
 465, 466, 467, 468, 469, 470, 471, 472, 473, 474, 475, 476, 477, 478, 479, 480
 481, 482, 483, 484, 485, 486, 487, 488, 489, 490, 491, 492, 493, 494, 495, 496
 497, 498, 499, 500, 501, 502, 503, 504, 505, 506, 507, 508, 509, 510, 511, 512
 513, 514, 515, 516, 517, 518, 519, 520, 521, 522, 523, 524, 525, 526, 527, 528
 529, 530, 531, 532, 533, 534, 535, 536, 537, 538, 539, 540, 541, 542, 543, 544
 545, 546, 547, 548, 549, 550, 551, 552, 553, 554, 555, 556, 557, 558, 559, 560
 561, 562, 563, 564, 565, 566, 567, 568, 569, 570, 571, 572, 573, 574, 575, 576
 577, 578, 579, 580, 581, 582, 583, 584, 585, 586, 587, 588, 589, 590, 591, 592
 593, 594, 595, 596, 597, 598, 599, 600, 601, 602, 603, 604, 605, 606, 607, 608
 609, 610, 611, 612, 613, 614, 615, 616, 617, 618, 619, 620, 621, 622, 623, 624
 625, 626, 627, 628, 629, 630, 631, 632, 633, 634, 635, 636, 637, 638, 639, 640
** ... 16 like lines cut
*Elset, elset=U4, generate
  81,  160,    1
*Elset, elset=U5, generate
  1,  80,   1
*Elset, elset=U6, generate
 161,  240,    1
*Elset, elset=U7, generate
 352,  431,    1
*Elset, elset=_BondBase_S1, internal
 241, 242, 243, 244, 245, 246, 247, 248, 249, 250, 251, 252, 271, 272, 273, 274
 275, 276, 277, 278, 279, 280, 281, 282, 304, 305, 306, 307, 308, 309, 310, 311
 312, 313, 314, 315
*Elset, elset=_BondBase_S2, internal, generate
 292,  303,    1
*Surface, type=ELEMENT, name=BondBase
_BondBase_S1, S1
_BondBase_S2, S2
** Section: Section-1
*Solid Section, elset=Set-1, material=Material-1
,
*End Part
**  
*Part, name=Part-2
*Node
      1,          -8.,        -0.75,           0.
      2,          -8.,        -0.75,  0.200000003
      3,          -9.,        -0.75,  0.200000003
      4,          -9.,        -0.75,           0.
      5,          -8.,         0.75,  0.200000003
      6,          -9.,         0.75,  0.200000003
      7,          -9.,         0.75,           0.
      8,          -8.,         0.75,           0.
      9,         0.75,           8.,  0.200000003
     10,         0.75,           8.,           0.
     11,         0.75,           9.,           0.
     12,         0.75,           9.,  0.200000003
     13,        -0.75,           8.,           0.
     14,        -0.75,           9.,           0.
     15,        -0.75,           9.,  0.200000003
     16,        -0.75,           8.,  0.200000003
     17,           8.,         0.75,           0.
     18,           8.,         0.75,  0.200000003
     19,           9.,         0.75,  0.200000003
     20,           9.,         0.75,           0.
** ... 858 like lines cut
*Element, type=C3D8R
1,  50,  54, 380, 377,   1,   2,  41,  42
2, 377, 380,  53,  45,  42,  41,   3,   4
3,  49,  55, 381, 378,  50,  54, 380, 377
4, 378, 381,  52,  46, 377, 380,  53,  45
5,  48,  56, 382, 379,  49,  55, 381, 378
6, 379, 382,  51,  47, 378, 381,  52,  46
7,   8,   5,  43,  44,  48,  56, 382, 379
8,  44,  43,   6,   7, 379, 382,  51,  47
 9,  66,  70, 386, 383,   9,  10,  57,  58
10, 383, 386,  69,  61,  58,  57,  11,  12
11,  65,  71, 387, 384,  66,  70, 386, 383
12, 384, 387,  68,  62, 383, 386,  69,  61
13,  64,  72, 388, 385,  65,  71, 387, 384
14, 385, 388,  67,  63, 384, 387,  68,  62
15,  16,  13,  59,  60,  64,  72, 388, 385
16,  60,  59,  14,  15, 385, 388,  67,  63
17,  82,  86, 392, 389,  17,  18,  73,  74
18, 389, 392,  85,  77,  74,  73,  19,  20
19,  81,  87, 393, 390,  82,  86, 392, 389
20, 390, 393,  84,  78, 389, 392,  85,  77
** ... 330 like lines cut
*Nset, nset=Set-1, generate
   1,  878,    1
*Elset, elset=Set-1, generate
   1,  350,    1
*Nset, nset=strippool, generate
 33,  36,   1
*Elset, elset=_Bondstrip_S6, internal
  1,  2,  3,  4,  5,  6,  7,  8, 17, 18, 19, 20, 21, 22, 23, 24
*Elset, elset=_Bondstrip_S5, internal, generate
 25,  32,   1
*Elset, elset=_Bondstrip_S4, internal, generate
  9,  16,   1
*Surface, type=ELEMENT, name=Bondstrip
_Bondstrip_S6, S6
_Bondstrip_S5, S5
_Bondstrip_S4, S4
*Elset, elset=_contstrip_S1, internal
   7,   8,  15,  16,  23,  24,  33,  34,  35,  36,  37,  38,  39,  40,  41,  42
  43,  44,  45,  46,  47,  48,  49,  50,  51,  52,  53,  54,  55,  56,  57,  58
  59,  60,  61,  62,  63,  64,  65,  66,  67,  68,  69,  70,  71,  72,  73,  74
  75,  76,  77,  78,  79,  80,  81,  82,  83,  84,  85,  86,  87,  88,  89,  90
  91,  92,  93,  94,  95,  96,  97,  98,  99, 100, 101, 102, 103, 104, 105, 106
 107, 108, 109, 110, 111, 112, 113, 114, 115, 116, 117, 118, 119, 120, 121, 122
 123, 124, 125, 126, 127, 128, 129, 130, 131, 132, 133, 134, 135, 136, 137, 138
 139, 140, 141, 142, 143, 144, 145, 146, 147, 148, 149, 150, 151, 152, 153, 154
 155, 156, 157, 158, 159, 160, 161, 162, 163, 164, 165, 166, 167, 168, 169, 170
 171, 172, 173, 174, 175, 176, 177, 178, 179, 180, 181, 182, 183, 184, 185, 186
 187, 188, 189, 190, 191, 192, 193, 194, 195, 196, 197, 198, 199, 200, 201, 202
 203, 204, 205, 206, 207, 208, 209, 210, 211, 212, 213, 214, 215, 216, 217, 218
 219, 220, 221, 222, 223, 224, 225, 226, 227, 228, 229, 230, 231, 232, 233, 234
 235, 236, 237, 238, 239, 240, 241, 242, 243, 244, 245, 246, 247, 248, 249, 250
 251, 252, 253, 254, 255, 256, 257, 258, 259, 260, 261, 262, 263, 264, 265, 266
 267, 268, 269, 270, 271, 272, 273, 274, 275, 276, 277, 278, 279, 280, 281, 282
 283, 284, 285, 286, 287, 288, 289, 290, 291, 292, 293, 294, 295, 296, 297, 298
 299, 300, 301, 302, 303, 304, 305, 306, 307, 308, 309, 310, 311, 312, 313, 314
 315, 316, 317, 318, 319, 320, 321, 322, 323, 324, 325, 326, 327, 328, 329, 330
 331, 332, 333, 334, 335, 336, 337, 338, 339, 340, 341, 342, 343, 344, 345, 346
 347, 348, 349, 350
*Elset, elset=_contstrip_S2, internal
   1,   2,   9,  10,  17,  18,  25,  26,  27,  28,  33,  34,  35,  36,  37,  38
  39,  40,  41,  42,  43,  44,  45,  46,  47,  48,  49,  50,  51,  52,  53,  54
  55,  56,  57,  58,  59,  60,  61,  62,  63,  64,  65,  66,  67,  68,  69,  70
  71,  72,  73,  74,  75,  76,  77,  78,  79,  80,  81,  82,  83,  84,  85,  86
  87,  88,  89,  90,  91,  92,  93,  94,  95,  96,  97,  98,  99, 100, 101, 102
 103, 104, 105, 106, 107, 108, 109, 110, 111, 112, 113, 114, 115, 116, 117, 118
 119, 120, 121, 122, 123, 124, 125, 126, 127, 128, 129, 130, 131, 132, 133, 134
 135, 136, 137, 138, 139, 140, 141, 142, 143, 144, 145, 146, 147, 148, 149, 150
 151, 152, 153, 154, 155, 156, 157, 158, 159, 160, 161, 162, 163, 164, 165, 166
 167, 168, 169, 170, 171, 172, 173, 174, 175, 176, 177, 178, 179, 180, 181, 182
 183, 184, 185, 186, 187, 188, 189, 190, 191, 192, 193, 194, 195, 196, 197, 198
 199, 200, 201, 202, 203, 204, 205, 206, 207, 208, 209, 210, 211, 212, 213, 214
 215, 216, 217, 218, 219, 220, 221, 222, 223, 224, 225, 226, 227, 228, 229, 230
 231, 232, 233, 234, 235, 236, 237, 238, 239, 240, 241, 242, 243, 244, 245, 246
 247, 248, 249, 250, 251, 252, 253, 254, 255, 256, 257, 258, 259, 260, 261, 262
 263, 264, 265, 266, 267, 268, 269, 270, 271, 272, 273, 274, 275, 276, 277, 278
 279, 280, 281, 282, 283, 284, 285, 286, 287, 288, 289, 290, 291, 292, 293, 294
 295, 296, 297, 298, 299, 300, 301, 302, 303, 304, 305, 306, 307, 308, 309, 310
 311, 312, 313, 314, 315, 316, 317, 318, 319, 320, 321, 322, 323, 324, 325, 326
 327, 328, 329, 330, 331, 332, 333, 334, 335, 336, 337, 338, 339, 340, 341, 342
 343, 344, 345, 346, 347, 348, 349, 350
*Elset, elset=_contstrip_S3, internal
  25,  26,  27,  28,  29,  30,  31,  32,  36,  46,  49,  52,  68,  73, 106, 114
 131, 138, 147, 169, 217, 237, 317
*Elset, elset=_contstrip_S4, internal
   1,   2,   3,   4,   5,   6,   7,   8,   9,  10,  11,  12,  13,  14,  15,  16
  17,  18,  19,  20,  21,  22,  23,  24,  28,  32,  34,  48,  54,  63,  64,  75
  77,  81,  83,  90,  91, 102, 107, 112, 119, 141, 143, 149, 156, 160, 187, 188
 189, 190, 191, 197, 205, 206, 207, 208, 209, 210, 211, 239, 240, 241, 242, 245
 249, 256, 257, 258, 264, 267, 269, 272, 288, 289, 291, 320, 322
*Elset, elset=_contstrip_S5, internal
   2,   4,   6,   8,  12,  14,  16,  18,  20,  22,  24,  25,  26,  27,  28,  29
  30,  31,  32,  37,  45,  53,  55,  57,  58,  59,  61,  80,  82,  88,  92, 100
 103, 144, 145, 167, 168, 178, 179, 183, 184, 194, 213, 214, 243, 246, 247, 250
 252, 260, 280, 287, 301, 314, 315
*Elset, elset=_contstrip_S6, internal
   1,   2,   3,   4,   5,   6,   7,   8,   9,  10,  11,  12,  13,  14,  15,  16
  17,  18,  19,  20,  21,  22,  23,  24,  25,  29,  35,  44,  78,  97,  99, 109
 110, 113, 116, 117, 118, 121, 122, 129, 133, 136, 140, 146, 152, 164, 165, 170
 174, 175, 185, 186, 196, 199, 200, 201, 202, 204, 220, 221, 222, 224, 225, 227
 265, 266, 274, 302
*Surface, type=ELEMENT, name=contstrip
_contstrip_S1, S1
_contstrip_S2, S2
_contstrip_S4, S4
_contstrip_S6, S6
_contstrip_S3, S3
_contstrip_S5, S5
** Section: Section-1
*Solid Section, elset=Set-1, material=Material-1
,
*End Part
**  
**
** ASSEMBLY
**
*Assembly, name=Assembly
**  
*Instance, name=Part-1-1, part=Part-1
*End Instance
**  
*Instance, name=Part-2-1, part=Part-2
          0.,           0.,          0.2
*End Instance
**  
*Nset, nset=BC_bottom, instance=Part-1-1, generate
 85,  88,   1
** Constraint: Constraint-1
*Tie, name=Constraint-1, adjust=yes
Part-2-1.Bondstrip, Part-1-1.BondBase
*End Assembly
** 
** MATERIALS
** 
*Material, name=Material-1
*Elastic
50000., 0.3
** 
** INTERACTION PROPERTIES
** 
*Surface Interaction, name=IntProp-1
1.,
*Friction, slip tolerance=0.005
 0.2,
** 
** CONTACT INITIALIZATION DATA
** 
*Contact Initialization Data, name=CInit-1
** 
** BOUNDARY CONDITIONS
** 
** Name: BC-1 Type: Symmetry/Antisymmetry/Encastre
*Boundary
BC_bottom, ENCASTRE
** 
** INTERACTIONS
** 
** Interaction: Int-1
*Contact Pair, interaction=IntProp-1, type=SURFACE TO SURFACE
Part-2-1.Bondstrip, Part-1-1.contbase
** ----------------------------------------------------------------
** 
** STEP: Step-3
** 
*Step, name=Step-3, nlgeom=YES
*Static
1., 1., 1e-05, 1.
** 
** BOUNDARY CONDITIONS
** 
** Name: BC-2 Type: Displacement/Rotation
*Boundary
Part-2-1.strippool, 3, 3, 2.
** 
** OUTPUT REQUESTS
** 
*Restart, write, frequency=0
** 
** FIELD OUTPUT: F-Output-3
** 
*Output, field, variable=PRESELECT
** 
** HISTORY OUTPUT: H-Output-1
** 
*Output, history, variable=PRESELECT
*End Step
